LTspice 24.0.9 for Windows
Circuit: * C:\SourceCode\GitHub\electronix\LTspice\LTspTransistors\Q_characteristics\leakage_current\leakage_current_02.asc
Start Time: Sat Apr 20 08:45:55 2024
Warning: Multiple definitions of model "2scr375p" Type: BJT
Warning: Multiple definitions of model "bc857b" Type: BJT
Warning: Multiple definitions of model "bc847c" Type: BJT
Warning: Multiple definitions of model "bc847b" Type: BJT
solver = Normal
Maximum thread count: 4
tnom = 27
temp = 27
method = modified trap
WARNING: Node N003 is floating.

WARNING: Less than two connections to node nc_01.  This node is used by rb.
Total elapsed time: 0.086 seconds.

